Mass Spectrum: 001
CAS: 0
Molecular weight: 0
m/z	intensity
101	999
102	999
103	999
104	999
105	999
